This is the first file in main branch.
New line.
